[General]
ned-path = .;../queueinglib
network = esame
repeat = 5
cpu-time-limit = 60s
sim-time-limit = 10000s
**.vector-recording = false

[Config Fase1]
**.sink.lifeTime.result-recording-modes = +mean
**.label="fase1"
**.N = 20

[Config Fase2_15]
**.N = 15
**.sink.lifeTime.result-recording-modes = +mean
**.label="fase2"
[Config Fase2_20]
**.N = 20
**.sink.lifeTime.result-recording-modes = +mean
**.label="fase2"
[Config Fase2_25]
**.N = 25
**.sink.lifeTime.result-recording-modes = +mean
**.label="fase2"
[Config Fase2_30]
**.N = 30
**.sink.lifeTime.result-recording-modes = +mean
**.label="fase2"
[Config Fase2_35]
**.N = 35
**.sink.lifeTime.result-recording-modes = +mean
**.label="fase2"
[Config Fase2_40]
**.N = 40
**.sink.lifeTime.result-recording-modes = +mean
**.label="fase2"
[Config Fase2_45]
**.N = 45
**.sink.lifeTime.result-recording-modes = +mean
**.label="fase2"
[Config Fase2_50]
**.N = 50
**.sink.lifeTime.result-recording-modes = +mean
**.label="fase2"
